13136
     RDKit          2D

  0  0  0  0  0  0  0  0  0  0999 V3000
M  V30 BEGIN CTAB
M  V30 COUNTS 39 34 0 0 0
M  V30 BEGIN ATOM
M  V30 1 Ca 8.819800 2.569500 0.000000 0 CHG=2 VAL=-1
M  V30 2 Ca 4.497000 0.228400 0.000000 0 CHG=2 VAL=-1
M  V30 3 Ca 4.631000 -4.685800 0.000000 0 CHG=2 VAL=-1
M  V30 4 O 5.263100 2.487200 0.000000 0
M  V30 5 O 2.923900 -1.564500 0.000000 0
M  V30 6 O 5.363000 0.728400 0.000000 0 CHG=-1
M  V30 7 O 4.497000 -0.771600 0.000000 0 CHG=-1
M  V30 8 O 4.497000 2.228400 0.000000 0
M  V30 9 O 2.765000 -0.771600 0.000000 0
M  V30 10 O 8.319800 3.435500 0.000000 0 CHG=-1
M  V30 11 O 8.561000 1.603600 0.000000 0 CHG=-1
M  V30 12 O 3.631000 -4.685800 0.000000 0 CHG=-1
M  V30 13 O 5.338100 -3.978700 0.000000 0 CHG=-1
M  V30 14 O 7.223400 4.685800 0.000000 0
M  V30 15 O 7.825500 0.112100 0.000000 0
M  V30 16 O 2.000000 -4.361400 0.000000 0
M  V30 17 O 6.262000 -2.596000 0.000000 0
M  V30 18 C 6.229100 2.228400 0.000000 0
M  V30 19 C 3.631000 -2.271600 0.000000 0
M  V30 20 C 6.487900 3.194400 0.000000 0
M  V30 21 C 6.729100 1.362400 0.000000 0
M  V30 22 C 2.923900 -2.978700 0.000000 0
M  V30 23 C 4.631000 -2.271600 0.000000 0
M  V30 24 C 5.363000 1.728400 0.000000 0
M  V30 25 C 3.631000 -1.271600 0.000000 0
M  V30 26 C 7.353900 3.694400 0.000000 0
M  V30 27 C 7.695000 1.103600 0.000000 0
M  V30 28 C 2.923900 -3.978700 0.000000 0
M  V30 29 C 5.338100 -2.978700 0.000000 0
M  V30 30 H 6.327400 3.793200 0.000000 0
M  V30 31 H 5.867900 3.194400 0.000000 0
M  V30 32 H 6.130200 1.201900 0.000000 0
M  V30 33 H 6.729100 0.742400 0.000000 0
M  V30 34 H 2.613900 -2.441800 0.000000 0
M  V30 35 H 2.325000 -3.139200 0.000000 0
M  V30 36 H 5.167900 -1.961600 0.000000 0
M  V30 37 H 4.470500 -1.672700 0.000000 0
M  V30 38 H 5.102700 3.086100 0.000000 0
M  V30 39 H 2.325000 -1.724900 0.000000 0
M  V30 END ATOM
M  V30 BEGIN BOND
M  V30 1 1 4 18
M  V30 2 1 4 38
M  V30 3 1 5 19
M  V30 4 1 5 39
M  V30 5 1 6 24
M  V30 6 1 7 25
M  V30 7 2 8 24
M  V30 8 2 9 25
M  V30 9 1 10 26
M  V30 10 1 11 27
M  V30 11 1 12 28
M  V30 12 1 13 29
M  V30 13 2 14 26
M  V30 14 2 15 27
M  V30 15 2 16 28
M  V30 16 2 17 29
M  V30 17 1 18 20
M  V30 18 1 18 21
M  V30 19 1 18 24
M  V30 20 1 19 22
M  V30 21 1 19 23
M  V30 22 1 19 25
M  V30 23 1 20 26
M  V30 24 1 20 30
M  V30 25 1 20 31
M  V30 26 1 21 27
M  V30 27 1 21 32
M  V30 28 1 21 33
M  V30 29 1 22 28
M  V30 30 1 22 34
M  V30 31 1 22 35
M  V30 32 1 23 29
M  V30 33 1 23 36
M  V30 34 1 23 37
M  V30 END BOND
M  V30 END CTAB
M  END
>  <PUBCHEM_COMPOUND_CID>  (1) 
13136

>  <PUBCHEM_COMPOUND_CANONICALIZED>  (1) 
1

>  <PUBCHEM_CACTVS_COMPLEXITY>  (1) 
211

>  <PUBCHEM_CACTVS_HBOND_ACCEPTOR>  (1) 
14

>  <PUBCHEM_CACTVS_HBOND_DONOR>  (1) 
2

>  <PUBCHEM_CACTVS_ROTATABLE_BOND>  (1) 
4

>  <PUBCHEM_CACTVS_SUBSKEYS>  (1) 
AAADccBwPAAAAAgAAAAAAAAAAAAAAAAAAAAAAAAAAAAAAAAAAAAAGgAACAAADESAgAAACAAAAgAIAACQCAIAAAAAAAAAAAFAAAABABYAAAAAQAAFIAABAADLJgAKAAAAAAAAAAAAAAAAAAAAAAAAAAAAAA==

>  <PUBCHEM_IUPAC_OPENEYE_NAME>  (1) 
tricalcium;dicitrate

>  <PUBCHEM_IUPAC_CAS_NAME>  (1) 
tricalcium;2-hydroxypropane-1,2,3-tricarboxylate

>  <PUBCHEM_IUPAC_NAME_MARKUP>  (1) 
tricalcium;2-hydroxypropane-1,2,3-tricarboxylate

>  <PUBCHEM_IUPAC_NAME>  (1) 
tricalcium;2-hydroxypropane-1,2,3-tricarboxylate

>  <PUBCHEM_IUPAC_SYSTEMATIC_NAME>  (1) 
tricalcium;2-oxidanylpropane-1,2,3-tricarboxylate

>  <PUBCHEM_IUPAC_TRADITIONAL_NAME>  (1) 
tricalcium;dicitrate

>  <PUBCHEM_IUPAC_INCHI>  (1) 
InChI=1S/2C6H8O7.3Ca/c2*7-3(8)1-6(13,5(11)12)2-4(9)10;;;/h2*13H,1-2H2,(H,7,8)(H,9,10)(H,11,12);;;/q;;3*+2/p-6

>  <PUBCHEM_IUPAC_INCHIKEY>  (1) 
FNAQSUUGMSOBHW-UHFFFAOYSA-H

>  <PUBCHEM_EXACT_MASS>  (1) 
497.8948275

>  <PUBCHEM_MOLECULAR_FORMULA>  (1) 
C12H10Ca3O14

>  <PUBCHEM_MOLECULAR_WEIGHT>  (1) 
498.4

>  <PUBCHEM_OPENEYE_CAN_SMILES>  (1) 
C(C(=O)[O-])C(CC(=O)[O-])(C(=O)[O-])O.C(C(=O)[O-])C(CC(=O)[O-])(C(=O)[O-])O.[Ca+2].[Ca+2].[Ca+2]

>  <PUBCHEM_OPENEYE_ISO_SMILES>  (1) 
C(C(=O)[O-])C(CC(=O)[O-])(C(=O)[O-])O.C(C(=O)[O-])C(CC(=O)[O-])(C(=O)[O-])O.[Ca+2].[Ca+2].[Ca+2]

>  <PUBCHEM_CACTVS_TPSA>  (1) 
281

>  <PUBCHEM_MONOISOTOPIC_WEIGHT>  (1) 
497.8948275

>  <PUBCHEM_TOTAL_CHARGE>  (1) 
0

>  <PUBCHEM_HEAVY_ATOM_COUNT>  (1) 
29

>  <PUBCHEM_ATOM_DEF_STEREO_COUNT>  (1) 
0

>  <PUBCHEM_ATOM_UDEF_STEREO_COUNT>  (1) 
0

>  <PUBCHEM_BOND_DEF_STEREO_COUNT>  (1) 
0

>  <PUBCHEM_BOND_UDEF_STEREO_COUNT>  (1) 
0

>  <PUBCHEM_ISOTOPIC_ATOM_COUNT>  (1) 
0

>  <PUBCHEM_COMPONENT_COUNT>  (1) 
5

>  <PUBCHEM_CACTVS_TAUTO_COUNT>  (1) 
-1

>  <PUBCHEM_COORDINATE_TYPE>  (1) 
1
5
255

$$$$
